
Spectre (R) Circuit Simulator
Version 18.1.0.464.isr11 32bit -- 21 Sep 2019
Copyright (C) 1989-2019 Cadence Design Systems, Inc. All rights reserved worldwide. Cadence and Spectre are registered trademarks of Cadence Design Systems, Inc. All others are the property of their respective holders.

Includes RSA BSAFE(R) Cryptographic or Security Protocol Software from RSA Security, Inc.

User: saimanish.gopu   Host: hera3.ece.tamu.edu   HostID: 370A2596   PID: 38276
Memory  available: 171.7443 GB  physical: 270.2580 GB
Linux   : CentOS Linux release 7.9.2009 (Core)
CPU Type: Intel(R) Xeon(R) CPU E5-2680 v2 @ 2.80GHz
All processors running at 3099.9 MHz
        Socket: Processors (Hyperthreaded Processor)
        0:       0 ( 20 ),  2 ( 22 ),  4 ( 24 ),  6 ( 26 ),  8 ( 28 )
                10 ( 30 ), 12 ( 32 ), 14 ( 34 ), 16 ( 36 ), 18 ( 38 )
        1:       1 ( 21 ),  3 ( 23 ),  5 ( 25 ),  7 ( 27 ),  9 ( 29 )
                11 ( 31 ), 13 ( 33 ), 15 ( 35 ), 17 ( 37 ), 19 ( 39 )
        
System load averages (1min, 5min, 15min) : 24.9 %, 23.9 %, 23.7 %
Hyperthreading is enabled


Simulating `inverter_delaytable.spi' on hera3.ece.tamu.edu at 2:41:02 PM, Mon Sep 25, 2023 (process id: 38276).
Current working directory: /home/grads/s/saimanish.gopu/ecen454_714/cellcharacs
Command line:
    /opt/coe/cadence/SPECTRE181/tools.lnx86/bin/spectre  \
        inverter_delaytable.spi

Loading /opt/coe/cadence/SPECTRE181/tools.lnx86/cmi/lib/5.0/libinfineon_sh.so ...
Loading /opt/coe/cadence/SPECTRE181/tools.lnx86/cmi/lib/5.0/libphilips_o_sh.so ...
Loading /opt/coe/cadence/SPECTRE181/tools.lnx86/cmi/lib/5.0/libphilips_sh.so ...
Loading /opt/coe/cadence/SPECTRE181/tools.lnx86/cmi/lib/5.0/libsparam_sh.so ...
Loading /opt/coe/cadence/SPECTRE181/tools.lnx86/cmi/lib/5.0/libstmodels_sh.so ...
Reading file:  /home/grads/s/saimanish.gopu/ecen454_714/cellcharacs/inverter_delaytable.spi
Reading file:  /opt/coe/cadence/SPECTRE181/tools.lnx86/spectre/etc/configs/spectre.cfg
Reading file:  /home/grads/s/saimanish.gopu/ecen454_714/cellcharacs/model18.spi
Reading file:  /home/grads/s/saimanish.gopu/ecen454_714/cellcharacs/cell18.spi
Time for NDB Parsing: CPU = 93.195 ms, elapsed = 227.167 ms.
Time accumulated: CPU = 137.712 ms, elapsed = 227.176 ms.
Peak resident memory used = 45.1 Mbytes.

Time for Elaboration: CPU = 18.831 ms, elapsed = 18.832 ms.
Time accumulated: CPU = 156.812 ms, elapsed = 246.314 ms.
Peak resident memory used = 50 Mbytes.


Time for EDB Visiting: CPU = 838 us, elapsed = 845.909 us.
Time accumulated: CPU = 157.881 ms, elapsed = 247.428 ms.
Peak resident memory used = 50.6 Mbytes.


Warning from spectre during initial setup.
    WARNING (CMI-2426): X1.M1: `Pdiblc2' = -8.75063e-06 is negative.


Global user options:

Scoped user options:

Circuit inventory:
              nodes 4
            bsim3v3 2     
          capacitor 1     
            vsource 3     

Analysis and control statement inventory:
               tran 1     

Output statements:
             .probe 0     
           .measure 0     
               save 1     


Warning from spectre during initial setup.
    WARNING (CMI-2426): X1.M1: `Pdiblc2' = -8.75063e-06 is negative.

Time for parsing: CPU = 7.37 ms, elapsed = 76.1991 ms.
Time accumulated: CPU = 165.437 ms, elapsed = 323.853 ms.
Peak resident memory used = 52.7 Mbytes.

~~~~~~~~~~~~~~~~~~~~~~
Pre-Simulation Summary
~~~~~~~~~~~~~~~~~~~~~~
~~~~~~~~~~~~~~~~~~~~~~

*************************************************************
Transient Analysis `TransientAnalysis': time = (0 s -> 10 ns)
*************************************************************
DC simulation time: CPU = 607 us, elapsed = 607.014 us.

Opening the PSF file inverter_delaytable.raw/TransientAnalysis.tran.tran ...
Important parameter values:
    start = 0 s
    outputstart = 0 s
    stop = 10 ns
    step = 1 ps
    maxstep = 200 ps
    ic = all
    useprevic = no
    skipdc = no
    reltol = 1e-03
    abstol(V) = 1 uV
    abstol(I) = 1 pA
    temp = 27 C
    tnom = 27 C
    tempeffects = all
    errpreset = moderate
    method = traponly
    lteratio = 3.5
    relref = sigglobal
    cmin = 0 F
    gmin = 1 pS


Output and IC/nodeset summary:
                 save   2       (voltage)

...........9...........8...........7........

Notice from spectre at time = 3.87886 ns during transient analysis `TransientAnalysis'.
    Found trapezoidal ringing on node vgnd:p.

...........9...........8...........7...........

Notice from spectre at time = 4 ns during transient analysis `TransientAnalysis'.
    Found trapezoidal ringing on node vgnd:p.

...........9...........8...........7...........6...........5...........4.......

Notice from spectre at time = 6.75331 ns during transient analysis `TransientAnalysis'.
    Found trapezoidal ringing on node vpwl:p.

...........9...........8...........7...........6...........5...........4.........

Notice from spectre at time = 6.95331 ns during transient analysis `TransientAnalysis'.
    Found trapezoidal ringing on node vpwl:p.

...........9...........8...........7...........6...........5...........4...........

Notice from spectre at time = 7.15331 ns during transient analysis `TransientAnalysis'.
    Found trapezoidal ringing on node vpwl:p.
        Further occurrences of this notice will be suppressed.

...........9...........8...........7...........6...........5...........4...........3...........2...........1...........0
Number of accepted tran steps =             90

Notice from spectre during transient analysis `TransientAnalysis'.
    Trapezoidal ringing is detected during tran analysis.
        Please use method=trap for better results and performance.


Maximum value achieved for any signal of each quantity: 
V: V(IV_out) = 1.809 V
I: I(vvdd:p) = 296.4 uA
If your circuit contains signals of the same quantity that are vastly different in size (such as high voltage circuitry combined with low voltage control circuitry), you should consider specifying global option `bin_relref=yes'.

~~~~~~~~~~~~~~~~~~~~~~~~~~~~~~~~~
Post-Transient Simulation Summary
~~~~~~~~~~~~~~~~~~~~~~~~~~~~~~~~~
   -   To further speed up simulation, consider
          add ++aps on command line
~~~~~~~~~~~~~~~~~~~~~~~~~~~~~~~~~


During simulation, the CPU load for active processors is :
        Spectre  0 (11.8 %)      2 (11.4 %)      3 (100.0 %)     4 (11.4 %)
                 5 (2.8 %)       6 (11.1 %)      8 (100.0 %)    10 (19.4 %)
                12 (14.3 %)     14 (13.9 %)     15 (100.0 %)    17 (100.0 %)
                18 (11.4 %)     19 (100.0 %)    20 (2.9 %)      21 (2.9 %)
                22 (40.0 %)     24 (47.2 %)     25 (27.8 %)     26 (100.0 %)
                27 (8.6 %)      29 (100.0 %)    30 (2.9 %)      31 (100.0 %)
                33 (2.8 %)      34 (2.9 %)      36 (100.0 %)    
        Other   
Initial condition solution time: CPU = 681 us, elapsed = 699.043 us.
Intrinsic tran analysis time:    CPU = 12.708 ms, elapsed = 33.5231 ms.
Total time required for tran analysis `TransientAnalysis': CPU = 16.056 ms, elapsed = 121.901 ms.
Time accumulated: CPU = 186.825 ms, elapsed = 485.938 ms.
Peak resident memory used = 54.6 Mbytes.


Notice from spectre.
    15 notices suppressed.


Aggregate audit (2:41:03 PM, Mon Sep 25, 2023):
Time used: CPU = 189 ms, elapsed = 492 ms, util. = 38.4%.
Time spent in licensing: elapsed = 18.1 ms.
Peak memory used = 55.1 Mbytes.
Simulation started at: 2:41:02 PM, Mon Sep 25, 2023, ended at: 2:41:03 PM, Mon Sep 25, 2023, with elapsed time (wall clock): 492 ms.
spectre completes with 0 errors, 2 warnings, and 8 notices.
