
Spectre (R) Circuit Simulator
Version 18.1.0.464.isr11 32bit -- 21 Sep 2019
Copyright (C) 1989-2019 Cadence Design Systems, Inc. All rights reserved worldwide. Cadence and Spectre are registered trademarks of Cadence Design Systems, Inc. All others are the property of their respective holders.

Includes RSA BSAFE(R) Cryptographic or Security Protocol Software from RSA Security, Inc.

User: saimanish.gopu   Host: hera3.ece.tamu.edu   HostID: 370A2596   PID: 2524
Memory  available: 71.2092 GB  physical: 270.2580 GB
Linux   : CentOS Linux release 7.9.2009 (Core)
CPU Type: Intel(R) Xeon(R) CPU E5-2680 v2 @ 2.80GHz
        Socket: Processors [Frequency] (Hyperthreaded Processor)
        0:       0 [3099.9] ( 20 ),  2 [3099.9] ( 22 ),  4 [3099.9] ( 24 )
                 6 [3099.9] ( 26 ),  8 [3099.9] ( 28 ), 10 [3099.8] ( 30 )
                12 [3099.9] ( 32 ), 14 [3099.9] ( 34 ), 16 [3099.8] ( 36 )
                18 [3099.9] ( 38 )
        1:       1 [3500.3] ( 21 ),  3 [3099.9] ( 23 ),  5 [3100.4] ( 25 )
                 7 [3194.8] ( 27 ),  9 [3100.1] ( 29 ), 11 [3190.3] ( 31 )
                13 [3100.8] ( 33 ), 15 [3190.3] ( 35 ), 17 [3190.3] ( 37 )
                19 [3099.6] ( 39 )
        
System load averages (1min, 5min, 15min) : 24.5 %, 24.5 %, 24.5 %
Hyperthreading is enabled


Simulating `inverter.spi' on hera3.ece.tamu.edu at 12:11:29 PM, Sun Oct 1, 2023 (process id: 2524).
Current working directory: /home/grads/s/saimanish.gopu/ecen454_714/cellcharacs
Command line:
    /opt/coe/cadence/SPECTRE181/tools.lnx86/bin/spectre inverter.spi


Fatal error found by spectre.
    FATAL (SPECTRE-209): Cannot run Spectre because the required license could not be checked out. Check your license server or use the license queuing feature (+lqtimeout) to wait for the required license to be available.
