
Spectre (R) Circuit Simulator
Version 18.1.0.464.isr11 32bit -- 21 Sep 2019
Copyright (C) 1989-2019 Cadence Design Systems, Inc. All rights reserved worldwide. Cadence and Spectre are registered trademarks of Cadence Design Systems, Inc. All others are the property of their respective holders.

Includes RSA BSAFE(R) Cryptographic or Security Protocol Software from RSA Security, Inc.

User: saimanish.gopu   Host: hera3.ece.tamu.edu   HostID: 370A2596   PID: 24552
Memory  available: 172.4595 GB  physical: 270.2580 GB
Linux   : CentOS Linux release 7.9.2009 (Core)
CPU Type: Intel(R) Xeon(R) CPU E5-2680 v2 @ 2.80GHz
        Socket: Processors [Frequency] (Hyperthreaded Processor)
        0:       0 [3113.6] ( 20 ),  2 [3143.3] ( 22 ),  4 [3119.1] ( 24 )
                 6 [3101.0] ( 26 ),  8 [3104.7] ( 28 ), 10 [3103.7] ( 30 )
                12 [3117.4] ( 32 ), 14 [3104.9] ( 34 ), 16 [3140.1] ( 36 )
                18 [3109.5] ( 38 )
        1:       1 [3099.6] ( 21 ),  3 [3102.8] ( 23 ),  5 [3099.9] ( 25 )
                 7 [3098.4] ( 27 ),  9 [3099.9] ( 29 ), 11 [3099.9] ( 31 )
                13 [3099.9] ( 33 ), 15 [3099.9] ( 35 ), 17 [3099.9] ( 37 )
                19 [3099.9] ( 39 )
        
System load averages (1min, 5min, 15min) : 24.2 %, 24.4 %, 24.1 %
Hyperthreading is enabled


Simulating `simcap.spi' on hera3.ece.tamu.edu at 2:18:55 PM, Mon Sep 25, 2023 (process id: 24552).
Current working directory: /home/grads/s/saimanish.gopu/ecen454_714/cellcharacs
Command line:
    /opt/coe/cadence/SPECTRE181/tools.lnx86/bin/spectre simcap.spi

Loading /opt/coe/cadence/SPECTRE181/tools.lnx86/cmi/lib/5.0/libinfineon_sh.so ...
Loading /opt/coe/cadence/SPECTRE181/tools.lnx86/cmi/lib/5.0/libphilips_o_sh.so ...
Loading /opt/coe/cadence/SPECTRE181/tools.lnx86/cmi/lib/5.0/libphilips_sh.so ...
Loading /opt/coe/cadence/SPECTRE181/tools.lnx86/cmi/lib/5.0/libsparam_sh.so ...
Loading /opt/coe/cadence/SPECTRE181/tools.lnx86/cmi/lib/5.0/libstmodels_sh.so ...
Reading file:  /home/grads/s/saimanish.gopu/ecen454_714/cellcharacs/simcap.spi
Reading file:  /opt/coe/cadence/SPECTRE181/tools.lnx86/spectre/etc/configs/spectre.cfg
Reading file:  /home/grads/s/saimanish.gopu/ecen454_714/cellcharacs/model18.spi
Reading file:  /home/grads/s/saimanish.gopu/ecen454_714/cellcharacs/cell18.spi
Time for NDB Parsing: CPU = 86.879 ms, elapsed = 267.089 ms.
Time accumulated: CPU = 130.817 ms, elapsed = 267.096 ms.
Peak resident memory used = 44.8 Mbytes.

Time for Elaboration: CPU = 18.603 ms, elapsed = 18.605 ms.
Time accumulated: CPU = 149.657 ms, elapsed = 285.958 ms.
Peak resident memory used = 49.7 Mbytes.


Time for EDB Visiting: CPU = 809 us, elapsed = 816.107 us.
Time accumulated: CPU = 150.685 ms, elapsed = 287.021 ms.
Peak resident memory used = 50.3 Mbytes.


Warning from spectre during initial setup.
    WARNING (CMI-2426): X1.M1: `Pdiblc2' = -8.75063e-06 is negative.


Global user options:

Scoped user options:

Circuit inventory:
              nodes 5
            bsim3v3 2     
           resistor 1     
            vsource 3     

Analysis and control statement inventory:
                 ac 1     

Output statements:
             .probe 0     
           .measure 0     
               save 1     


Notice from spectre during initial setup.
    1 resistor is changed to resistance form because its value is less than 'rthresh'.
Warning from spectre during initial setup.
    WARNING (CMI-2426): X1.M1: `Pdiblc2' = -8.75063e-06 is negative.

Time for parsing: CPU = 7.48 ms, elapsed = 91.3899 ms.
Time accumulated: CPU = 158.369 ms, elapsed = 378.652 ms.
Peak resident memory used = 52.4 Mbytes.

~~~~~~~~~~~~~~~~~~~~~~
Pre-Simulation Summary
~~~~~~~~~~~~~~~~~~~~~~
~~~~~~~~~~~~~~~~~~~~~~

*******************************************
AC Analysis `Freq': freq = (10 Hz -> 1 GHz)
*******************************************
DC simulation time: CPU = 486 us, elapsed = 487.089 us.

Opening the PSF file simcap.raw/Freq.ac ...
...........9...........8...........7...........6...........5...........4...........3...........2...........1...........0
Accumulated DC solution time =            0 s.
Intrinsic ac analysis time =              0 s.
Total time required for ac analysis `Freq': CPU = 4.598 ms, elapsed = 34.7469 ms.
Time accumulated: CPU = 167.645 ms, elapsed = 425.483 ms.
Peak resident memory used = 53.6 Mbytes.


Aggregate audit (2:18:56 PM, Mon Sep 25, 2023):
Time used: CPU = 170 ms, elapsed = 429 ms, util. = 39.5%.
Time spent in licensing: elapsed = 17.7 ms.
Peak memory used = 54.2 Mbytes.
Simulation started at: 2:18:55 PM, Mon Sep 25, 2023, ended at: 2:18:56 PM, Mon Sep 25, 2023, with elapsed time (wall clock): 429 ms.
spectre completes with 0 errors, 2 warnings, and 2 notices.
